tests/data/power_flow/pandapower-test-line/sym_output.json
{
  "line": [
    {
      "id": 3,
      "loading": 0.07625893811746638,
      "p_from": 14088.783849169089,
      "q_from": -1387005.3644093636,
      "i_from": 76.25893811746639,
      "s_from": 1387076.917380828,
      "p_to": -10748.539588631651,
      "q_to": 1042467.744881974,
      "i_to": 57.19171883004398,
      "s_to": 1042523.1557248964
    },
    {
      "id": 6,
      "loading": 0.03810127409805576,
      "p_from": 10680.174169569256,
      "q_from": -694449.5569571643,
      "i_from": 38.10127409805576,
      "s_from": 694531.6791034762,
      "p_to": -10068.490779013722,
      "q_to": 346656.3387446276,
      "i_to": 19.007801085871566,
      "s_to": 346802.5255075243
    },
    {
      "id": 7,
      "loading": 0.019091910454243542,
      "p_from": 68.36541917634275,
      "q_from": -348018.18792481004,
      "i_from": 19.091910454243543,
      "s_from": 348018.19463973277,
      "p_to": 5.717360119881919e-08,
      "q_to": 5.681122777018584e-08,
      "i_to": 4.420234014104034e-12,
      "s_to": 8.05998528211904e-08
    },
    {
      "id": 8,
      "loading": 0.01910940657758311,
      "p_from": -1.2470213888667506e-10,
      "q_from": -2.8522193140867023e-08,
      "i_from": 1.562788722902198e-12,
      "s_from": 2.8522465745239573e-08,
      "p_to": 68.49077884392278,
      "q_to": -348656.3387446184,
      "i_to": 19.10940657758311,
      "s_to": 348656.3454718541
    }
  ],
  "node": [
    {
      "id": 1,
      "u_pu": 1.000137852884453,
      "u": 10501.447455286754,
      "u_angle": -1.520101009306784e-05
    },
    {
      "id": 2,
      "u_pu": 1.0023113184368027,
      "u": 10524.26884358643,
      "u_angle": -0.0027863041826991673
    },
    {
      "id": 5,
      "u_pu": 1.0032298521004868,
      "u": 10533.91344705511,
      "u_angle": -0.003979258726433099
    }
  ],
  "source": [
    {
      "id": 4,
      "p": 14088.783849282794,
      "q": -1387005.36440925,
      "i": 76.25893811746018,
      "s": 1387076.9173807155
    }
  ],
  "sym_load": [
    {
      "id": 9,
      "p": 10000.0,
      "q": 2000.0,
      "i": 0.5589414235407372,
      "s": 10198.03902718557
    }
  ]
}